[General]
network = Symulator
sim-time-limit = 100h
cpu-time-limit = 300s